Version 4
SHEET 1 1252 680
WIRE 944 -576 912 -576
WIRE 944 -544 944 -576
WIRE 1040 -544 944 -544
WIRE 752 -512 672 -512
WIRE 992 -512 912 -512
WIRE 672 -496 672 -512
WIRE 672 -496 576 -496
WIRE 848 -416 848 -512
WIRE 992 -416 992 -512
WIRE 992 -416 848 -416
WIRE 832 -352 -128 -352
WIRE 1248 -256 928 -256
WIRE -240 -240 -608 -240
WIRE 496 -176 496 -256
WIRE 576 -176 496 -176
WIRE 704 -176 640 -176
WIRE 704 -160 704 -176
WIRE 560 -96 384 -96
WIRE 624 -96 560 -96
WIRE 1072 -96 1072 -160
WIRE 560 -64 560 -96
WIRE 624 -64 624 -96
WIRE -448 16 -448 -64
WIRE 496 48 496 -176
WIRE 384 64 384 -96
WIRE 464 64 384 64
WIRE 1072 64 1072 -16
WIRE 560 80 560 0
WIRE 560 80 528 80
WIRE 624 80 624 16
WIRE 624 80 560 80
WIRE 640 80 624 80
WIRE 752 80 720 80
WIRE 112 96 32 96
WIRE 224 96 192 96
WIRE 304 96 224 96
WIRE 464 96 304 96
WIRE 224 128 224 96
WIRE 304 128 304 96
WIRE 384 128 384 64
WIRE 752 128 752 80
WIRE 928 128 928 -256
WIRE 1248 128 1248 -256
WIRE 1248 128 928 128
WIRE -448 176 -448 96
WIRE -608 224 -608 -240
WIRE -240 224 -240 -240
WIRE -240 224 -608 224
WIRE 224 240 224 192
WIRE 304 240 304 208
WIRE 384 240 384 208
WIRE 496 240 496 112
WIRE 752 240 752 192
WIRE -128 320 -128 -352
WIRE 832 320 832 -352
WIRE 832 320 -128 320
WIRE 0 0 0 0
FLAG 224 240 0
FLAG 304 240 0
FLAG 496 240 0
FLAG 704 -160 0
FLAG 1072 -160 5V
FLAG 1072 64 0
FLAG 496 -256 5V
FLAG 384 240 0
FLAG 752 240 0
FLAG -448 176 0
FLAG -448 -64 Isensor
FLAG 32 96 Isensor
SYMBOL res 208 80 R90
WINDOW 0 0 56 VBottom 2
WINDOW 3 32 56 VTop 2
SYMATTR InstName R1
SYMATTR Value 10k
SYMBOL res 288 112 R0
SYMATTR InstName R2
SYMATTR Value 100k
SYMBOL res 368 112 R0
SYMATTR InstName R3
SYMATTR Value 1k
SYMBOL cap 208 128 R0
SYMATTR InstName C1
SYMATTR Value 100n
SYMBOL cap 736 128 R0
SYMATTR InstName C2
SYMATTR Value 100n
SYMBOL res 736 64 R90
WINDOW 0 0 56 VBottom 2
WINDOW 3 32 56 VTop 2
SYMATTR InstName R4
SYMATTR Value 1k
SYMBOL res 608 -80 R0
SYMATTR InstName R5
SYMATTR Value 100k
SYMBOL cap 544 -64 R0
SYMATTR InstName C3
SYMATTR Value 1µ
SYMBOL cap 640 -192 R90
WINDOW 0 0 32 VBottom 2
WINDOW 3 32 32 VTop 2
SYMATTR InstName C4
SYMATTR Value 100n
SYMBOL OpAmps\\LTC1050 496 16 R0
SYMATTR InstName U1
SYMBOL voltage 1072 -112 R0
SYMATTR InstName V2
SYMATTR Value 5
SYMBOL current -448 96 R180
WINDOW 0 32 40 VTop 2
WINDOW 3 -88 40 VBottom 2
WINDOW 123 -60 40 VBottom 2
WINDOW 39 0 0 Left 0
SYMATTR InstName I1
SYMATTR Value PULSE(50n 100n 1 0.1u 0.1u 2)
SYMATTR Value2 AC 1
SYMBOL asy 832 -544 R0
SYMATTR InstName X1
TEXT -88 -320 Left 2 ;Etage ampli
TEXT -402 326 Left 2 !.tran 10
TEXT 960 -232 Left 2 ;Générateur de tension
TEXT -592 -224 Left 2 ;Récupération du courant
TEXT -448 -192 Left 2 ;Mesure capteur
TEXT -568 -392 Left 2 !;ac dec 100 1 10000
